Circuit: * C:\Users\jkatzban\OneDrive - Olin College of Engineering\Classes\_F20\Circuits\Labs\2\LTSpice\Experiment 1.asc


Date: Tue Sep 29 14:35:56 2020
Total elapsed time: 0.037 seconds.

tnom = 27
temp = 27
method = trap
totiter = 232
traniter = 0
tranpoints = 0
accept = 0
rejected = 0
matrix size = 4
fillins = 0
solver = Normal
Matrix Compiler1:      17 opcodes  0.0/[0.0]/0.0
Matrix Compiler2: off  [0.0]/0.1/0.0

