Circuit: * C:\Users\jkatzban\OneDrive - Olin College of Engineering\Classes\_F20\Circuits\Labs\1\LTSpice\Experiment 1.asc

.OP point found by inspection.

Date: Sat Sep 19 16:51:44 2020
Total elapsed time: 0.045 seconds.

tnom = 27
temp = 27
method = trap
totiter = 500
traniter = 0
tranpoints = 0
accept = 0
rejected = 0
matrix size = 4
fillins = 0
solver = Normal
Matrix Compiler1: 100 bytes object code size  0.1/0.0/[0.0]
Matrix Compiler2: 248 bytes object code size  0.1/0.1/[0.1]

